@<TRIPOS>MOLECULE
e = None
 7 6 0 0 0
SMALL
GASTEIGER

@<TRIPOS>ATOM
      1 O           1.1044    0.7969    0.0000 O.co2   1  LIG1       -0.7628
      2 C           0.0000    0.2211    0.0000 C.2     1  LIG1        0.7745
      3 O          -1.1509    0.7003    0.0000 O.co2   1  LIG1       -0.7628
      4 C           0.0458   -1.3483    0.0000 C.3     1  LIG1       -0.2886
      5 H           1.0813   -1.7354    0.0000 H       1  LIG1        0.0047
      6 H          -0.4918   -1.7393    0.8861 H       1  LIG1        0.0176
      7 H          -0.4918   -1.7393   -0.8861 H       1  LIG1        0.0176
@<TRIPOS>BOND
     1     7     4    1
     2     2     3   ar
     3     2     1   ar
     4     2     4    1
     5     5     4    1
     6     4     6    1
