@<TRIPOS>MOLECULE
acetate
7 6 0 0 0
SMALL
USER_CHARGES

@<TRIPOS>ATOM
 1   O2   2.087    1.506    0.000   O2  1  ace -0.7661
 2   C    0.000    0.418    0.000   C   1  ace  0.7908
 3   O2  -2.175    1.323    0.000   O2  1  ace -0.7661
 4   CT   0.087   -2.548    0.000   CT  1  ace -0.3293
 5   HC   2.043   -3.279    0.000   HC  1  ace  0.0236
 6   HC  -0.929   -3.287    1.675   HC  1  ace  0.0236
 7   HC  -0.929   -3.287   -1.675   HC  1  ace  0.0236
@<TRIPOS>BOND
 1   1   2   1
 2   2   3   1
 3   2   4   1
 4   4   5   1
 5   4   6   1
 6   4   7   1
