@<TRIPOS>MOLECULE
/Volumes/HDD/Maxim/work/devel/fftoolbox2/data/xyz/tmp-amber_methanethiol_pbe_def2svp.xyz
 8 5 0 0 0
SMALL
GASTEIGER

@<TRIPOS>ATOM
      1 S          -0.0477   -0.6618    0.0000 S.3     1  LIG1        0.3336
      2 XX         -0.0477   -0.6618    0.7000 EP_S    1  LIG1       -0.3184
      3 XX         -0.0477   -0.6618   -0.7000 EP_S    2  LIG2       -0.3184
      4 H           1.2938   -0.8248    0.0000 H       1  LIG1        0.1711
      5 C          -0.0477    1.1416    0.0000 C.3     1  LIG1       -0.0245
      6 H          -1.1058    1.4500    0.0000 H       1  LIG1        0.0866
      7 H           0.4310    1.5566    0.9020 H       1  LIG1        0.0356
      8 H           0.4310    1.5566   -0.9020 H       1  LIG1        0.0356
@<TRIPOS>BOND
     1     8     5    1
     2     1     4    1
     3     1     5    1
     4     6     5    1
     5     5     7    1
