@<TRIPOS>MOLECULE
/Volumes/HDD/Maxim/work/devel/fftoolbox2/data/xyz/tmp-amber_methanol_pbe_def2svp.xyz
 8 5 0 0 0
SMALL
GASTEIGER

@<TRIPOS>ATOM
      1 O          -0.0465   -0.7485    0.0000 O.3     1  LIG1        0.2733
      2 XX         -0.2106   -0.8663    0.2858 EP_O    1  LIG1       -0.3375
      3 XX         -0.2106   -0.8663   -0.2858 EP_O    2  LIG2       -0.3375
      4 H           0.8698   -1.0585    0.0000 H       1  LIG1        0.3023
      5 C          -0.0465    0.6498    0.0000 C.3     1  LIG1       -0.0432
      6 H          -1.0989    0.9777    0.0000 H       1  LIG1        0.0973
      7 H           0.4398    1.0852    0.8988 H       1  LIG1        0.0228
      8 H           0.4398    1.0852   -0.8988 H       1  LIG1        0.0228
@<TRIPOS>BOND
     1     8     5    1
     2     1     4    1
     3     1     5    1
     4     6     5    1
     5     5     7    1
