@<TRIPOS>MOLECULE
/Volumes/HDD/Maxim/work/devel/fftoolbox2/data/xyz/amber_trans-mesno_pbe_def2svp_tmp.xyz
 12 6 0 0 0
SMALL
GASTEIGER

@<TRIPOS>ATOM
      1 O          -1.6665   -1.1589    0.0000 O.2     1  LIG1        0.1835
      2 XX         -1.8839   -0.8845    0.0000 EP_O    2  LIG2       -0.1904
      3 XX         -1.7954   -1.4843   -0.0000 EP_O    3  LIG3       -0.1904
      4 N          -0.5097   -0.9558    0.0000 N.2     1  LIG1        0.9364
      5 XX         -0.2766   -1.2168    0.0000 EP_N    4  LIG4       -0.7150
      6 S           0.0000    0.7729    0.0000 S.3     1  LIG1        0.1112
      7 XX         -0.0000    0.7729    0.7000 EP_S    5  LIG5       -0.1374
      8 XX          0.0000    0.7729   -0.7000 EP_S    6  LIG6       -0.1374
      9 C           1.7556    0.4166    0.0000 C.3     1  LIG1       -0.1569
     10 H           2.2796    1.3861    0.0000 H       1  LIG1        0.1328
     11 H           2.0435   -0.1453    0.9026 H       1  LIG1        0.0820
     12 H           2.0435   -0.1453   -0.9026 H       1  LIG1        0.0820
@<TRIPOS>BOND
     1    12     9    1
     2     4     6    1
     3     4     1    2
     4     6     9    1
     5     9    10    1
     6     9    11    1
