@<TRIPOS>MOLECULE
/Volumes/HDD/Maxim/work/devel/fftoolbox2/data/xyz/amber_cis-mesno_pbe_def2svp_tmp.xyz
 12 6 0 0 0
SMALL
GASTEIGER

@<TRIPOS>ATOM
      1 O          -0.7770   -1.4766    0.0000 O.2     1  LIG1        0.6844
      2 EP         -0.4299   -1.5217   -0.0000 EP_O    2  LIG2       -0.4033
      3 EP         -0.9895   -1.7547    0.0000 EP_O    3  LIG3       -0.4033
      4 N          -1.2032   -0.3746    0.0000 N.2     1  LIG1        0.8173
      5 EP         -1.5471   -0.3096    0.0000 EP_N    4  LIG4       -0.7129
      6 S           0.0000    0.9369    0.0000 S.3     1  LIG1        0.2482
      7 EP         -0.0000    0.9369    0.7000 EP_S    5  LIG5       -0.1775
      8 EP          0.0000    0.9369   -0.7000 EP_S    6  LIG6       -0.1775
      9 C           1.5201   -0.0001    0.0000 C.3     1  LIG1       -0.1852
     10 H           2.3538    0.7204    0.0000 H       1  LIG1        0.1336
     11 H           1.5819   -0.6379    0.8977 H       1  LIG1        0.0885
     12 H           1.5819   -0.6379   -0.8977 H       1  LIG1        0.0885
@<TRIPOS>BOND
     1    12     9    1
     2     4     6    1
     3     4     1    2
     4     6     9    1
     5     9    10    1
     6     9    11    1
