@<TRIPOS>MOLECULE
/Volumes/HDD/Maxim/work/devel/fftoolbox2/data/xyz/tmp-amber_formaldehyde_pbe_def2svp.xyz
 6 3 0 0 0
SMALL
GASTEIGER

@<TRIPOS>ATOM
      1 C           0.0000    0.0000   -0.5226 C.2     1  LIG1        0.1860
      2 O           0.0000    0.0000    0.6729 O.2     1  LIG1        0.3008
      3 XX         -0.0000   -0.3031    0.8479 EP_O    1  LIG1       -0.2806
      4 XX          0.0000    0.3031    0.8479 EP_O    2  LIG2       -0.2806
      5 H           0.0000    0.9469   -1.1239 H       1  LIG1        0.0373
      6 H           0.0000   -0.9469   -1.1239 H       1  LIG1        0.0373
@<TRIPOS>BOND
     1     5     1    1
     2     6     1    1
     3     1     2    2
