@<TRIPOS>MOLECULE
methanol
8 7 0 0 0
SMALL
USER_CHARGES

@<TRIPOS>ATOM
 1   O   -0.046   -0.749    0.000   O   1  met  0.2681
 2   HO   0.870   -1.059    0.000   HO  1  met  0.3023
 3   CT  -0.046    0.650    0.000   CT  1  met -0.0422
 4   HC  -1.099    0.978    0.000   HC  1  met  0.0966
 5   HC   0.440    1.085    0.899   HC  1  met  0.0232
 6   HC   0.440    1.085   -0.899   HC  1  met  0.0232
 7   EP  -0.211   -0.866    0.286   EP  1  met -0.3354
 8   EP  -0.211   -0.866   -0.286   EP  1  met -0.3354
@<TRIPOS>BOND
 1   1   2   1
 2   1   3   1
 3   1   7   1
 4   1   8   1
 5   3   4   1
 6   3   5   1
 7   3   6   1
