@<TRIPOS>MOLECULE
e = None
 5 4 0 0 0
SMALL
GASTEIGER

@<TRIPOS>ATOM
      1 N           0.0000    0.0000    0.0000 N.4     1  LIG1       -0.6597
      2 H           0.5975    0.5975    0.5975 H       1  LIG1        0.4149
      3 H          -0.5975   -0.5975    0.5975 H       1  LIG1        0.4149
      4 H          -0.5975    0.5975   -0.5975 H       1  LIG1        0.4149
      5 H           0.5975   -0.5975   -0.5975 H       1  LIG1        0.4149
@<TRIPOS>BOND
     1     4     1    1
     2     5     1    1
     3     1     2    1
     4     1     3    1
