@<TRIPOS>MOLECULE
cis-mesno
7 6 0 0 0
SMALL
USER_CHARGES

@<TRIPOS>ATOM
 1   O   -0.783   -1.511    0.000   O   1  cis -0.0981
 2   N   -1.234   -0.411    0.000   N   1  cis -0.0053
 3   S    0.000    0.962    0.000   S   1  cis -0.0462
 4   CT   1.552    0.012    0.000   CT  1  cis -0.1938
 5   HC   2.373    0.738    0.000   HC  1  cis  0.1223
 6   HC   1.609   -0.617    0.897   HC  1  cis  0.1129
 7   HC   1.609   -0.617   -0.897   HC  1  cis  0.1129
@<TRIPOS>BOND
 1   1   2   1
 2   2   3   1
 3   3   4   1
 4   4   5   1
 5   4   6   1
 6   4   7   1
