@<TRIPOS>MOLECULE
cis-mesno
7 6 0 0 0
SMALL
USER_CHARGES

@<TRIPOS>ATOM
 1   O   -1.489   -2.784    0.000   O   1  cis -0.1295
 2   N   -2.264   -0.680    0.000   N   1  cis -0.0503
 3   S    0.000    1.751    0.000   S   1  cis -0.0283
 4   CT   2.884    0.003    0.000   CT  1  cis  0.0073
 5   HC   4.442    1.383    0.000   HC  1  cis  0.0680
 6   HC   3.008   -1.195    1.700   HC  1  cis  0.0680
 7   HC   3.008   -1.195   -1.700   HC  1  cis  0.0680
@<TRIPOS>BOND
 1   1   2   1
 2   2   3   1
 3   3   4   1
 4   4   5   1
 5   4   6   1
 6   4   7   1
