@<TRIPOS>MOLECULE
cis-mesno
7 6 0 0 0
SMALL
USER_CHARGES

@<TRIPOS>ATOM
 1   O   -1.468   -2.790    0.000   O   1  cis -0.1080
 2   N   -2.274   -0.708    0.000   N   1  cis -0.0261
 3   S    0.000    1.771    0.000   S   1  cis -0.0396
 4   CT   2.873   -0.000    0.000   CT  1  cis -0.0407
 5   HC   4.448    1.361    0.000   HC  1  cis  0.0725
 6   HC   2.989   -1.205    1.696   HC  1  cis  0.0725
 7   HC   2.989   -1.205   -1.696   HC  1  cis  0.0725
@<TRIPOS>BOND
 1   1   2   1
 2   2   3   1
 3   3   4   1
 4   4   5   1
 5   4   6   1
 6   4   7   1
