@<TRIPOS>MOLECULE
e = None
 4 3 0 0 0
SMALL
GASTEIGER

@<TRIPOS>ATOM
      1 C           0.0000    0.0000   -0.5226 C.2     1  LIG1        0.3947
      2 O           0.0000    0.0000    0.6729 O.2     1  LIG1       -0.3836
      3 H           0.0000    0.9469   -1.1239 H       1  LIG1       -0.0054
      4 H           0.0000   -0.9469   -1.1239 H       1  LIG1       -0.0054
@<TRIPOS>BOND
     1     3     1    1
     2     4     1    1
     3     1     2    2
