@<TRIPOS>MOLECULE
/Volumes/HDD/Maxim/work/devel/fftoolbox2/data/xyz/tmp-methanethiol_pbe_def2svp.xyz
 6 5 0 0 0
SMALL
GASTEIGER

@<TRIPOS>ATOM
      1 S          -0.0477   -0.6618    0.0000 S.3     1  LIG1       -0.2837
      2 H           1.2938   -0.8248    0.0000 H       1  LIG1        0.1961
      3 C          -0.0477    1.1416    0.0000 C.3     1  LIG1       -0.3062
      4 H          -1.1058    1.4500    0.0000 H       1  LIG1        0.1807
      5 H           0.4310    1.5566    0.9020 H       1  LIG1        0.1075
      6 H           0.4310    1.5566   -0.9020 H       1  LIG1        0.1075
@<TRIPOS>BOND
     1     6     3    1
     2     1     2    1
     3     1     3    1
     4     3     4    1
     5     3     5    1
