@<TRIPOS>MOLECULE
/Volumes/HDD/Maxim/work/devel/fftoolbox2/data/xyz/tmp-methanol_pbe_def2svp.xyz
 6 5 0 0 0
SMALL
GASTEIGER

@<TRIPOS>ATOM
      1 O          -0.0465   -0.7485    0.0000 O.3     1  LIG1       -0.6177
      2 H           0.8698   -1.0585    0.0000 H       1  LIG1        0.4065
      3 C          -0.0465    0.6498    0.0000 C.3     1  LIG1        0.1855
      4 H          -1.0989    0.9777    0.0000 H       1  LIG1        0.0502
      5 H           0.4398    1.0852    0.8988 H       1  LIG1       -0.0120
      6 H           0.4398    1.0852   -0.8988 H       1  LIG1       -0.0120
@<TRIPOS>BOND
     1     6     3    1
     2     1     2    1
     3     1     3    1
     4     3     4    1
     5     3     5    1
