@<TRIPOS>MOLECULE
methanethiol
6 5 0 0 0
SMALL
USER_CHARGES

@<TRIPOS>ATOM
 1   S   -0.048   -0.664    0.000   S   1  met -0.2877
 2   HO   1.280   -0.821    0.000   HO  1  met  0.1843
 3   CT  -0.048    1.152    0.000   CT  1  met -0.3381
 4   HC  -1.092    1.453    0.000   HC  1  met  0.1982
 5   HC   0.432    1.543    0.892   HC  1  met  0.1120
 6   HC   0.432    1.543   -0.892   HC  1  met  0.1377
@<TRIPOS>BOND
 1   1   2   1
 2   1   3   1
 3   3   4   1
 4   3   5   1
 5   3   6   1
