@<TRIPOS>MOLECULE
/Volumes/HDD/Maxim/work/devel/fftoolbox2/data/xyz/tmp-methanimine_pbe_def2svp.xyz
 5 4 0 0 0
SMALL
GASTEIGER

@<TRIPOS>ATOM
      1 C           0.0563    0.5815    0.0000 C.3     1  LIG1        0.2397
      2 H          -0.8487    1.2228    0.0000 H       1  LIG1        0.0094
      3 H           1.0220    1.1165    0.0000 H       1  LIG1        0.0460
      4 N           0.0563   -0.6832    0.0000 N.3     1  LIG1       -0.6509
      5 H          -0.9055   -1.0457    0.0000 H       1  LIG1        0.3566
@<TRIPOS>BOND
     1     1     2    1
     2     1     3    1
     3     1     4    1
     4     4     5    1
