@<TRIPOS>MOLECULE
trans-mesno
7 6 0 0 0
SMALL
USER_CHARGES

@<TRIPOS>ATOM
 1   O   -1.667   -1.159    0.000   O   1  tra -0.0900
 2   N   -0.510   -0.956    0.000   N   1  tra -0.0174
 3   S    0.000    0.773    0.000   S   1  tra  0.0485
 4   CT   1.756    0.417    0.000   CT  1  tra -0.4611
 5   HC   2.280    1.386    0.000   HC  1  tra  0.1742
 6   HC   2.044   -0.145    0.903   HC  1  tra  0.1742
 7   HC   2.044   -0.145   -0.903   HC  1  tra  0.1742
@<TRIPOS>BOND
 1   1   2   1
 2   2   3   1
 3   3   4   1
 4   4   5   1
 5   4   6   1
 6   4   7   1
