@<TRIPOS>MOLECULE
/Volumes/HDD/Maxim/work/devel/fftoolbox2/data/xyz/truncate-3/cis-mesno_pbe_def2svp_tmp.xyz
 12 5 0 0 0
SMALL
GASTEIGER

@<TRIPOS>ATOM
      1 O          -0.7770   -1.4766    0.0000 O.3     1  HOH1        0.3207
      2 XX         -0.1218   -1.6718   -0.0000 EP_O    2  LIG2       -0.1781
      3 XX         -1.1000   -2.0792    0.0000 EP_O    3  LIG3       -0.1781
      4 N          -1.2032   -0.3746    0.0000 N.3     3  LIG3        0.1750
      5 XX         -1.7615   -0.3349   -0.0000 EP_N    4  LIG4       -0.2576
      6 S           0.0000    0.9369    0.0000 S.3     3  LIG3        0.2484
      7 XX         -0.0758    1.4829   -1.1345 EP_S    5  LIG5       -0.1053
      8 XX         -0.0758    1.4829    1.1345 EP_S    6  LIG6       -0.1053
      9 C           1.5201   -0.0001    0.0000 C.3     3  LIG3       -0.2444
     10 H           2.3538    0.7204    0.0000 H       3  LIG3        0.1314
     11 H           1.5819   -0.6379    0.8977 H       3  LIG3        0.0969
     12 H           1.5819   -0.6379   -0.8977 H       3  LIG3        0.0969
@<TRIPOS>BOND
     1    12     9    1
     2     4     6    1
     3     6     9    1
     4     9    10    1
     5     9    11    1
