@<TRIPOS>MOLECULE
/Volumes/HDD/Maxim/work/devel/fftoolbox2/data/xyz/truncate-3/trans-mesno_pbe_def2svp_tmp.xyz
 12 6 0 0 0
SMALL
GASTEIGER

@<TRIPOS>ATOM
      1 O          -1.6665   -1.1589    0.0000 O.2     1  LIG1        0.6432
      2 XX         -1.8939   -0.7986    0.0000 EP_O    2  LIG2       -0.3666
      3 XX         -1.7803   -1.5694   -0.0000 EP_O    3  LIG3       -0.3666
      4 N          -0.5097   -0.9558    0.0000 N.2     1  LIG1        0.5776
      5 XX         -0.2683   -1.0817   -0.0000 EP_N    4  LIG4       -0.6492
      6 S           0.0000    0.7729    0.0000 S.3     1  LIG1        0.7706
      7 XX         -0.2028    1.1097   -0.7861 EP_S    5  LIG5       -0.3147
      8 XX         -0.2028    1.1097    0.7861 EP_S    6  LIG6       -0.3147
      9 C           1.7556    0.4166    0.0000 C.3     1  LIG1       -0.3927
     10 H           2.2796    1.3861    0.0000 H       1  LIG1        0.1524
     11 H           2.0435   -0.1453    0.9026 H       1  LIG1        0.1305
     12 H           2.0435   -0.1453   -0.9026 H       1  LIG1        0.1305
@<TRIPOS>BOND
     1    12     9    1
     2     4     6    1
     3     4     1    2
     4     6     9    1
     5     9    10    1
     6     9    11    1
