@<TRIPOS>MOLECULE
/Volumes/HDD/Maxim/work/devel/fftoolbox2/data/xyz/truncate-1/cis-mesno_pbe_def2svp_tmp.xyz
 12 6 0 0 0
SMALL
GASTEIGER

@<TRIPOS>ATOM
      1 O          -0.7770   -1.4766    0.0000 O.2     1  LIG1    33939.0905
      2 XX         -0.7755   -1.4760   -0.0000 EP_O    2  LIG2    -16969.5452
      3 XX         -0.7785   -1.4773    0.0000 EP_O    3  LIG3    -16969.5452
      4 N          -1.2032   -0.3746    0.0000 N.2     1  LIG1    -20616.0105
      5 XX         -1.2031   -0.3746   -0.0000 EP_N    4  LIG4    20615.7625
      6 S           0.0000    0.9369    0.0000 S.3     1  LIG1        1.8029
      7 XX         -0.0310    1.1598    0.5298 EP_S    5  LIG5       -0.7546
      8 XX         -0.0310    1.1598   -0.5298 EP_S    6  LIG6       -0.7546
      9 C           1.5201   -0.0001    0.0000 C.3     1  LIG1       -0.5036
     10 H           2.3538    0.7204    0.0000 H       1  LIG1        0.1787
     11 H           1.5819   -0.6379    0.8977 H       1  LIG1        0.1397
     12 H           1.5819   -0.6379   -0.8977 H       1  LIG1        0.1397
@<TRIPOS>BOND
     1    12     9    1
     2     4     6    1
     3     4     1    2
     4     6     9    1
     5     9    10    1
     6     9    11    1
