@<TRIPOS>MOLECULE
/Volumes/HDD/Maxim/work/devel/fftoolbox2/data/xyz/truncate-1/methanimine_pbe_def2svp_tmp.xyz
 6 4 0 0 0
SMALL
GASTEIGER

@<TRIPOS>ATOM
      1 C           0.0563    0.5815    0.0000 C.3     1  LIG1       -0.1157
      2 H          -0.8487    1.2228    0.0000 H       1  LIG1        0.0938
      3 H           1.0220    1.1165    0.0000 H       1  LIG1        0.1239
      4 N           0.0563   -0.6832    0.0000 N.3     1  LIG1       -0.1398
      5 XX          0.5123   -1.2121    0.0000 EP_N    1  LIG1       -0.2158
      6 H          -0.9055   -1.0457    0.0000 H       1  LIG1        0.2543
@<TRIPOS>BOND
     1     1     2    1
     2     1     3    1
     3     1     4    1
     4     4     6    1
