@<TRIPOS>MOLECULE
/Volumes/HDD/Maxim/work/devel/fftoolbox2/data/xyz/truncate-1/methanethiol_pbe_def2svp_tmp.xyz
 8 5 0 0 0
SMALL
GASTEIGER

@<TRIPOS>ATOM
      1 S          -0.0477   -0.6618    0.0000 S.3     1  LIG1        0.6013
      2 XX         -0.2632   -0.8526   -0.8560 EP_S    1  LIG1       -0.3490
      3 XX         -0.2632   -0.8526    0.8560 EP_S    2  LIG2       -0.3490
      4 H           1.2938   -0.8248    0.0000 H       1  LIG1        0.0627
      5 C          -0.0477    1.1416    0.0000 C.3     1  LIG1       -0.1977
      6 H          -1.1058    1.4500    0.0000 H       1  LIG1        0.1121
      7 H           0.4310    1.5566    0.9020 H       1  LIG1        0.0598
      8 H           0.4310    1.5566   -0.9020 H       1  LIG1        0.0598
@<TRIPOS>BOND
     1     8     5    1
     2     1     4    1
     3     1     5    1
     4     6     5    1
     5     5     7    1
