@<TRIPOS>MOLECULE
/Volumes/HDD/Maxim/work/devel/fftoolbox2/data/xyz/truncate-1/trans-mesno_pbe_def2svp_tmp.xyz
 12 6 0 0 0
SMALL
GASTEIGER

@<TRIPOS>ATOM
      1 O          -1.6665   -1.1589    0.0000 O.2     1  LIG1     8700.6058
      2 XX         -1.6671   -1.1552    0.0000 EP_O    2  LIG2    -4350.2912
      3 XX         -1.6660   -1.1626   -0.0000 EP_O    3  LIG3    -4350.2912
      4 N          -0.5097   -0.9558    0.0000 N.2     1  LIG1       -0.0763
      5 XX          0.1203   -1.0681   -0.0000 EP_N    4  LIG4       -0.2758
      6 S           0.0000    0.7729    0.0000 S.3     1  LIG1    21696.0318
      7 XX         -0.0000    0.7729    0.0053 EP_S    5  LIG5    -10847.8117
      8 XX         -0.0000    0.7729   -0.0053 EP_S    6  LIG6    -10847.8117
      9 C           1.7556    0.4166    0.0000 C.3     1  LIG1       -0.5367
     10 H           2.2796    1.3861    0.0000 H       1  LIG1        0.1610
     11 H           2.0435   -0.1453    0.9026 H       1  LIG1        0.1481
     12 H           2.0435   -0.1453   -0.9026 H       1  LIG1        0.1481
@<TRIPOS>BOND
     1    12     9    1
     2     4     6    1
     3     4     1    2
     4     6     9    1
     5     9    10    1
     6     9    11    1
