@<TRIPOS>MOLECULE
/Volumes/HDD/Maxim/work/devel/fftoolbox2/data/xyz/truncate-0/cis-mesno_pbe_def2svp_tmp.xyz
 12 6 0 0 0
SMALL
GASTEIGER

@<TRIPOS>ATOM
      1 O          -0.7770   -1.4766    0.0000 O.2     1  LIG1    8285746812.8570
      2 XX         -0.7770   -1.4766   -0.0000 EP_O    2  LIG2    -4142873406.5281
      3 XX         -0.7770   -1.4766    0.0000 EP_O    3  LIG3    -4142873406.5281
      4 N          -1.2032   -0.3746    0.0000 N.2     1  LIG1        0.0142
      5 XX         -2.5495    0.0142    0.0000 EP_N    4  LIG4       -0.0749
      6 S           0.0000    0.9369    0.0000 S.3     1  LIG1        4.8558
      7 XX         -0.0135    1.0338    0.3374 EP_S    5  LIG5       -2.2860
      8 XX         -0.0135    1.0338   -0.3374 EP_S    6  LIG6       -2.2860
      9 C           1.5201   -0.0001    0.0000 C.3     1  LIG1       -0.3147
     10 H           2.3538    0.7204    0.0000 H       1  LIG1        0.1294
     11 H           1.5819   -0.6379    0.8977 H       1  LIG1        0.0807
     12 H           1.5819   -0.6379   -0.8977 H       1  LIG1        0.0807
@<TRIPOS>BOND
     1    12     9    1
     2     4     6    1
     3     4     1    2
     4     6     9    1
     5     9    10    1
     6     9    11    1
