@<TRIPOS>MOLECULE
/Volumes/HDD/Maxim/work/devel/fftoolbox2/data/xyz/truncate-0/trans-mesno_pbe_def2svp_tmp.xyz
 12 6 0 0 0
SMALL
GASTEIGER

@<TRIPOS>ATOM
      1 O          -1.6665   -1.1589    0.0000 O.2     1  LIG1    648075.4752
      2 XX         -1.6665   -1.1593   -0.0000 EP_O    2  LIG2    -324037.7439
      3 XX         -1.6666   -1.1585    0.0000 EP_O    3  LIG3    -324037.7439
      4 N          -0.5097   -0.9558    0.0000 N.2     1  LIG1        0.1261
      5 XX          0.1529   -1.1078   -0.0000 EP_N    4  LIG4       -0.2101
      6 S           0.0000    0.7729    0.0000 S.3     1  LIG1    14210410422.0233
      7 XX         -0.0000    0.7729   -0.0000 EP_S    5  LIG5    -7105205211.0181
      8 XX         -0.0000    0.7729    0.0000 EP_S    6  LIG6    -7105205211.0181
      9 C           1.7556    0.4166    0.0000 C.3     1  LIG1       -0.3921
     10 H           2.2796    1.3861    0.0000 H       1  LIG1        0.1734
     11 H           2.0435   -0.1453    0.9026 H       1  LIG1        0.1652
     12 H           2.0435   -0.1453   -0.9026 H       1  LIG1        0.1652
@<TRIPOS>BOND
     1    12     9    1
     2     4     6    1
     3     4     1    2
     4     6     9    1
     5     9    10    1
     6     9    11    1
