@<TRIPOS>MOLECULE
/Volumes/HDD/Maxim/work/devel/fftoolbox2/data/xyz/truncate-2/cis-mesno_pbe_def2svp_tmp.xyz
 12 6 0 0 0
SMALL
GASTEIGER

@<TRIPOS>ATOM
      1 O          -0.7770   -1.4766    0.0000 O.2     1  LIG1        1.1438
      2 XX         -0.4884   -1.4982   -0.0000 EP_O    2  LIG2       -0.5996
      3 XX         -0.9650   -1.6967    0.0000 EP_O    3  LIG3       -0.5996
      4 N          -1.2032   -0.3746    0.0000 N.2     1  LIG1        0.8057
      5 XX         -1.3291   -0.3030    0.0000 EP_N    4  LIG4       -0.9814
      6 S           0.0000    0.9369    0.0000 S.3     1  LIG1        1.4767
      7 XX         -0.0363    1.1983    0.5879 EP_S    5  LIG5       -0.6048
      8 XX         -0.0363    1.1983   -0.5879 EP_S    6  LIG6       -0.6048
      9 C           1.5201   -0.0001    0.0000 C.3     1  LIG1       -0.4861
     10 H           2.3538    0.7204    0.0000 H       1  LIG1        0.1756
     11 H           1.5819   -0.6379    0.8977 H       1  LIG1        0.1374
     12 H           1.5819   -0.6379   -0.8977 H       1  LIG1        0.1374
@<TRIPOS>BOND
     1    12     9    1
     2     4     6    1
     3     4     1    2
     4     6     9    1
     5     9    10    1
     6     9    11    1
