@<TRIPOS>MOLECULE
/Volumes/HDD/Maxim/work/devel/fftoolbox2/data/xyz/truncate-2/methanethiol_pbe_def2svp_tmp.xyz
 8 5 0 0 0
SMALL
GASTEIGER

@<TRIPOS>ATOM
      1 S          -0.0477   -0.6618    0.0000 S.3     1  LIG1        0.0306
      2 XX         -0.3394   -0.9201    1.3003 EP_S    1  LIG1       -0.1196
      3 XX         -0.3394   -0.9201   -1.3003 EP_S    2  LIG2       -0.1196
      4 H           1.2938   -0.8248    0.0000 H       1  LIG1        0.1206
      5 C          -0.0477    1.1416    0.0000 C.3     1  LIG1       -0.0970
      6 H          -1.1058    1.4500    0.0000 H       1  LIG1        0.0961
      7 H           0.4310    1.5566    0.9020 H       1  LIG1        0.0447
      8 H           0.4310    1.5566   -0.9020 H       1  LIG1        0.0447
@<TRIPOS>BOND
     1     8     5    1
     2     1     4    1
     3     1     5    1
     4     6     5    1
     5     5     7    1
