@<TRIPOS>MOLECULE
/Volumes/HDD/Maxim/work/devel/fftoolbox2/data/xyz/truncate-2/trans-mesno_pbe_def2svp_tmp.xyz
 12 5 0 0 0
SMALL
GASTEIGER

@<TRIPOS>ATOM
      1 O          -1.6665   -1.1589    0.0000 O.3     1  HOH1       -0.0722
      2 XX         -2.2632   -0.3944    0.0000 EP_O    2  LIG2       -0.0570
      3 XX         -2.0172   -2.0631   -0.0000 EP_O    3  LIG3       -0.0570
      4 N          -0.5097   -0.9558    0.0000 N.3     3  LIG3        0.5220
      5 XX         -0.1180   -1.1726   -0.0000 EP_N    4  LIG4       -0.4732
      6 S           0.0000    0.7729    0.0000 S.3     3  LIG3        0.7556
      7 XX         -0.1868    1.0832   -0.7795 EP_S    5  LIG5       -0.3233
      8 XX         -0.1868    1.0832    0.7795 EP_S    6  LIG6       -0.3233
      9 C           1.7556    0.4166    0.0000 C.3     3  LIG3       -0.3653
     10 H           2.2796    1.3861    0.0000 H       3  LIG3        0.1474
     11 H           2.0435   -0.1453    0.9026 H       3  LIG3        0.1232
     12 H           2.0435   -0.1453   -0.9026 H       3  LIG3        0.1232
@<TRIPOS>BOND
     1    12     9    1
     2     4     6    1
     3     6     9    1
     4     9    10    1
     5     9    11    1
